Version 4
SHEET 1 1528 824
WIRE 128 -656 128 -688
WIRE 688 -656 128 -656
WIRE 48 -608 32 -608
WIRE 128 -608 128 -656
WIRE 128 -608 48 -608
WIRE 256 -608 128 -608
WIRE 272 -608 256 -608
WIRE -544 -592 -544 -640
WIRE 256 -544 256 -608
WIRE 32 -496 32 -608
WIRE 272 -496 272 -608
WIRE -544 -464 -544 -512
WIRE 48 -448 48 -608
WIRE 256 -400 256 -448
WIRE -544 -352 -544 -400
WIRE 272 -352 272 -496
WIRE 32 -288 32 -400
WIRE 128 -288 32 -288
WIRE 256 -288 256 -304
WIRE 256 -288 128 -288
WIRE -544 -224 -544 -272
WIRE 128 -224 128 -288
WIRE 272 -176 272 -352
WIRE 272 -176 144 -176
WIRE 688 -176 688 -656
WIRE 704 -160 688 -160
WIRE 624 -128 576 -128
WIRE 704 -128 704 -160
WIRE -544 -96 -544 -144
WIRE 128 -32 128 -128
WIRE 576 -32 576 -128
WIRE 576 -32 128 -32
WIRE 688 -32 688 -80
WIRE 816 -32 688 -32
WIRE 688 16 688 -32
WIRE -544 32 -544 -16
WIRE 128 64 128 -32
WIRE 128 64 16 64
WIRE 272 64 128 64
WIRE 576 64 576 -32
WIRE 624 64 576 64
WIRE 704 96 704 64
WIRE 704 96 688 96
WIRE 272 128 272 64
WIRE 448 128 272 128
WIRE 16 144 16 64
WIRE 272 144 272 128
WIRE 448 144 448 128
WIRE -544 160 -544 112
WIRE 32 224 32 192
WIRE 32 224 16 224
WIRE -544 288 -544 240
WIRE 272 304 272 240
WIRE 352 304 272 304
WIRE 448 304 448 240
WIRE 448 304 352 304
WIRE 352 384 352 304
WIRE -544 400 -544 352
WIRE 16 496 16 240
WIRE 128 496 16 496
WIRE 352 496 352 480
WIRE 352 496 128 496
WIRE -544 528 -544 480
WIRE 128 528 128 496
WIRE 688 528 688 112
WIRE 688 528 128 528
WIRE 128 608 128 528
FLAG 128 608 0
FLAG 816 -32 Out
IOPIN 816 -32 Out
FLAG -544 -224 0
FLAG -544 32 0
FLAG -544 288 0
FLAG -544 528 0
FLAG -544 -464 0
FLAG -544 -400 A
FLAG -544 -144 B
FLAG -544 112 C
FLAG -544 352 D
FLAG -544 -640 VDD
FLAG -32 -448 A
FLAG 288 432 A
FLAG 192 -496 B
FLAG 208 192 B
FLAG 192 -352 C
FLAG 384 192 C
FLAG 64 -176 D
FLAG -48 192 D
FLAG 128 -688 VDD
FLAG 288 192 0
FLAG 464 192 0
FLAG 368 432 0
SYMBOL AMScellsDigit\\n4 -32 144 R0
SYMATTR InstName U1
SYMBOL AMScellsDigit\\n4 304 384 R0
SYMATTR InstName U2
SYMBOL AMScellsDigit\\n4 224 144 R0
SYMATTR InstName U3
SYMBOL AMScellsDigit\\n4 400 144 R0
SYMATTR InstName U4
SYMBOL AMScellsDigit\\p4 -16 -496 R0
SYMATTR InstName U5
SYMBOL AMScellsDigit\\p4 208 -400 R0
SYMATTR InstName U6
SYMBOL AMScellsDigit\\p4 208 -544 R0
SYMATTR InstName U7
SYMBOL AMScellsDigit\\p4 80 -224 R0
SYMATTR InstName U8
SYMBOL AMScellsDigit\\p4 640 -176 R0
SYMATTR InstName U9
SYMBOL AMScellsDigit\\n4 640 16 R0
SYMATTR InstName U10
SYMBOL voltage -544 -368 R0
WINDOW 123 0 0 Left 0
WINDOW 39 0 0 Left 0
SYMATTR InstName V1
SYMATTR Value PULSE(0 5 0 10p 10p 40m 80m)
SYMBOL voltage -544 -112 R0
WINDOW 123 0 0 Left 0
WINDOW 39 0 0 Left 0
SYMATTR InstName V2
SYMATTR Value PULSE(0 5 0 10p 10p 20m 40m)
SYMBOL voltage -544 144 R0
WINDOW 123 0 0 Left 0
WINDOW 39 0 0 Left 0
SYMATTR InstName V3
SYMATTR Value PULSE(0 5 0 10p 10p 10m 20m)
SYMBOL voltage -544 384 R0
WINDOW 123 0 0 Left 0
WINDOW 39 0 0 Left 0
SYMATTR InstName V4
SYMATTR Value PULSE(0 5 0 10p 10p 5m 10m)
SYMBOL voltage -544 -608 R0
WINDOW 123 0 0 Left 0
WINDOW 39 0 0 Left 0
SYMATTR InstName V5
SYMATTR Value 5
TEXT 280 -736 Left 2 !.include C:\\AMSLev49Digit.sub
TEXT -578 552 Left 2 !.tran 0 80m 0 1
